data/state_estimation/SE_PT2040_W/state_estimation_PT2040_W_t19.csv
bus,vm_pu,va_degree,p_mw,q_mvar
1,1.043537,0.093222,0.006668,-44.234651
2,1.045801,0.210992,-0.025537,-43.545915
3,1.042020,0.167869,0.046167,-30.409707
4,1.040953,-0.022961,0.104127,-46.682896
5,1.034685,0.168565,-30.555644,-4.160257
6,1.034152,0.174313,0.011798,-5.053169
7,1.036156,-0.046296,0.125995,25.212364
8,1.006409,-0.001483,-0.014232,0.197778
9,1.028332,-0.096299,0.027080,0.056385
10,1.039259,-0.061534,0.034227,0.015758
11,1.021482,-0.116209,-1.391950,0.060993
12,1.022203,-0.075569,0.057427,0.054583
13,1.025395,-0.114695,-5.413744,-1.515069
14,1.029237,-0.095163,0.043877,0.065371
15,1.043068,-0.034700,-0.088095,0.007878
16,1.023364,0.186934,0.106898,-0.032114
17,1.031403,0.044315,0.082365,0.052503
18,1.019988,-0.004010,-0.020333,0.032228
19,1.012973,-0.161161,0.007882,0.061255
20,1.017650,-0.133239,0.003882,-0.072513
21,1.025852,0.029027,0.099244,-0.001561
22,1.030831,-0.046190,100.558639,-23.493757
23,1.015604,-0.097516,-0.011731,0.078312
24,1.028701,0.197997,0.095534,0.081733
25,1.021953,0.015791,-30.624848,-0.073310
26,1.040982,-0.050790,-4.573108,-0.510293
27,1.037225,-0.067690,-0.043048,0.484308
28,1.034855,-0.047973,-0.195052,0.289164
29,1.028191,-0.054028,0.034784,0.030851
30,1.039769,0.054489,31.019351,39.556237
31,1.022567,0.219935,-0.057948,-0.031686
32,1.035107,0.052716,-0.080676,-0.021953
33,1.043840,0.058660,0.093515,0.076886
34,1.026478,-0.058305,0.151207,0.007096
35,1.012896,0.103306,0.026269,-0.078343
36,1.016708,0.002134,-0.036393,-0.038485
37,1.024251,-0.073856,0.011915,0.041649
38,1.023833,0.079613,0.031255,0.029944
39,1.025403,0.086072,0.067953,0.003802
40,1.035684,0.174287,-0.054504,-0.052305
41,1.023452,0.065216,0.061546,-0.016684
42,1.024980,0.155575,-0.005479,0.017152
43,1.023639,-0.085570,0.075281,0.054815
44,1.026277,0.084161,-0.027499,-0.059275
45,1.024862,-0.005009,0.164338,-0.011366
46,1.024232,-0.039308,0.040703,-0.003342
47,1.029260,0.161835,0.020732,-0.003161
48,1.021569,0.064795,0.049646,0.036331
49,1.027048,0.083079,0.061826,-0.034353
50,1.024047,-0.071698,-30.639504,0.029165
51,1.033801,0.146589,0.055011,0.014925
52,1.026966,0.046472,0.015891,-0.047115
53,1.023409,0.061691,0.066600,0.036968
54,1.043825,0.277054,0.111057,-0.010042
55,1.022327,-0.087419,0.100789,0.013431
56,1.024037,-0.091801,0.062932,0.014706
57,1.027063,0.089125,0.068105,-0.027898
58,1.020770,-0.089239,0.132491,0.039372
59,1.024672,-0.075833,-0.002861,0.079279
60,1.029593,0.103369,0.058463,-0.117461
61,1.030466,0.163671,89.959049,7.063522
62,1.024210,0.225124,0.005330,0.013407
63,1.042117,0.249540,0.013702,0.026163
64,1.018344,-0.034946,0.011843,0.010653
65,1.030715,0.193054,0.035976,-0.018243
66,1.031419,0.115951,-0.002966,-0.034717
67,1.027525,0.106529,-1.704242,0.000748
68,1.023456,0.062888,0.059155,0.074478
69,1.025902,0.081224,0.012721,0.068783
70,1.030239,0.113332,0.084286,0.012327
71,1.024833,0.081926,-0.090875,0.048944
72,1.019291,0.221262,0.108979,0.043333
73,1.034540,0.234971,-0.031433,-0.025557
74,1.023451,-0.033595,0.005375,-0.091653
75,1.029093,0.221038,-0.024166,0.025055
76,1.021877,-0.089769,0.057975,-0.025609
77,1.037354,0.246508,-0.011007,0.020260
78,1.022437,0.130309,0.014582,-0.047707
79,1.031091,0.221491,0.030964,0.050671
80,1.043110,-0.024584,-0.040443,0.047203
81,1.038703,0.075599,0.068700,0.032631
82,1.040243,-0.024618,0.053033,0.035581
83,1.043037,0.085817,0.034502,-0.032118
84,1.041014,-0.042574,0.005671,0.036732
85,1.035216,0.050133,-0.036773,-0.053923
86,1.041283,-0.042461,0.019700,0.030937
87,1.045935,-0.007396,-0.082479,0.049463
88,1.039260,0.078252,0.071444,-0.035857
89,1.039740,-0.028604,-0.033381,0.003331
90,1.042665,0.142578,0.059712,-0.030493
91,1.040262,0.079586,0.025726,-0.005580
92,1.033976,0.079818,0.064597,-0.044668
93,1.039233,0.083376,0.062028,0.022297
94,1.040982,0.079044,0.053604,0.041898
95,1.044272,0.098537,-0.010928,0.054142
96,1.045205,0.093348,0.066704,0.024420
97,1.040669,-0.042372,0.041627,0.033146
98,1.044825,0.168762,-0.009769,0.010074
99,1.045190,0.156056,0.042484,-0.014276
100,1.042821,-0.000380,-30.599168,-0.006612
101,1.039569,0.098007,-0.047728,-0.048264
102,1.030304,-0.033187,0.054930,0.009833
103,1.043061,0.128266,0.019170,-0.057819
104,1.039652,0.079958,0.016395,-0.040476
105,1.044057,-0.024033,0.039616,0.005367
106,1.046992,0.212244,-0.021622,-0.016964
107,1.032393,-0.044281,0.078508,-0.026727
108,1.017699,0.067975,12.626815,-3.399587
109,1.021924,-0.114370,-379.897157,12.323474
110,1.022272,-0.147718,-252.300748,-9.540987
111,1.022720,0.002131,-239.625034,-3.344192
112,1.027049,-0.119232,-100.139399,-4.618727
113,1.031921,-0.111330,-110.068819,0.221577
114,1.027596,0.067446,-60.804567,-6.295841
115,1.006796,0.141420,-90.176346,3.613659
116,1.020277,-0.041770,-486.305194,-9.934828
117,1.017917,-0.146748,-66.047470,-4.982985
118,1.021808,0.140035,-48.118393,-7.196818
119,1.037955,-0.110231,-327.604485,-9.909844
120,1.023397,0.057740,-120.913483,-6.063899
121,1.019665,-0.114385,-154.809925,-16.784822
122,1.035885,0.033589,-182.917530,-15.368974
123,1.030285,-0.179006,-291.050736,7.017106
124,1.030724,-0.064216,-198.419865,32.690988
125,1.023808,-0.090126,-173.804559,-9.271634
126,1.033751,-0.061329,-140.678469,-1.817137
127,1.023021,0.241762,264.289313,-1.633959
128,1.038759,0.001502,-272.270184,-2.559113
129,1.032174,-0.053480,-389.109846,31.112075
130,1.019838,-0.027326,-514.825481,-16.606553
131,1.030001,-0.094613,-222.641121,-9.485712
132,1.011670,0.071282,34.397010,-10.131843
133,1.007193,-0.056867,-197.081867,28.072267
134,1.023411,-0.025615,-274.075520,19.867896
135,1.022879,-0.152231,-298.948087,-17.548018
136,1.029338,-0.185872,-339.056967,-5.420882
137,1.028772,-0.003499,-189.894717,5.845281
138,1.026285,0.062830,-175.650653,-1.250927
139,1.021937,-0.156013,-236.696612,-3.912995
140,1.022972,-0.233360,-130.419137,5.051024
141,1.019881,-0.211796,-170.941297,-0.993014
142,1.026811,-0.067095,-206.678834,6.000533
143,1.016537,-0.111881,-67.846946,-5.597599
144,1.021893,0.054899,-102.749342,-1.616780
145,1.017946,0.059634,-298.809927,6.009757
146,1.016217,-0.052996,-8.271281,-1.728673
147,1.026652,-0.138841,-104.234669,-3.483418
148,1.010521,0.207734,0.064689,0.058286
149,1.022641,-0.161821,-214.639200,-3.843157
150,1.026958,0.112532,-114.129689,11.690379
151,1.028315,-0.072722,-292.018086,-4.875442
152,1.020877,0.176538,-131.108164,7.956221
153,1.027564,0.241370,-10.070259,-1.405575
154,1.017661,-0.096593,-135.764071,-3.902113
155,1.022426,0.267672,224.112940,-0.967580
156,1.020846,0.103230,-26.240977,-3.509665
157,1.019576,-0.003974,-128.735441,0.226885
158,1.029100,0.064745,-76.782060,-1.803307
159,1.030218,-0.037467,40.077729,20.398967
160,1.028403,0.184187,127.575027,-1.340732
161,1.018691,0.165745,178.493716,7.988917
162,1.022734,0.216974,-3.258488,11.153851
163,1.029033,0.053529,-10.112701,-2.532342
164,1.025337,-0.019580,9.873385,-4.186393
165,1.010990,0.240515,31.883096,-14.895261
166,1.024280,-0.010090,51.892826,-10.215241
167,1.011121,0.215084,-18.755042,3.866584
168,1.030401,-0.113702,-221.818780,7.259086
169,1.027322,-0.007696,107.832553,28.558979
170,1.020483,0.110734,-44.118750,11.837232
171,1.019743,0.043522,-78.155996,-0.753351
172,1.010410,0.207731,-40.829999,-2.639765
173,1.043534,0.061649,71.959559,11.148123
174,1.042676,0.060875,21.017969,-4.188635
175,1.008438,0.036063,54.036008,-15.247261
176,1.008095,0.024716,22.130718,-1.123632
177,1.044851,0.057956,0.060900,5.034533
178,1.026385,0.196322,29.057289,1.785059
179,1.045723,0.057640,31.242898,25.747085
180,1.026790,-0.104231,0.047200,0.005133
181,1.037647,0.205228,65.958946,47.308589
182,1.044089,0.058734,0.012213,21.335338
183,1.046180,0.009460,295.069208,-0.525215
184,1.039694,0.052111,0.047712,0.003151
185,1.033884,-0.080902,-0.032713,0.042399
186,1.021397,-0.128794,0.075048,0.004731
187,1.017164,0.000394,26.621252,18.373302
188,1.017238,0.001871,26.495576,15.013627
189,1.015997,0.001348,26.478372,15.088285
190,1.025281,0.074680,0.058532,-0.056063
191,1.046319,0.287334,184.558752,-5.232894
192,1.040677,0.265847,119.958652,4.484776
193,1.028718,0.092283,0.055684,-0.033563
194,1.037000,0.174038,120.014807,8.346656
195,1.030520,0.091577,0.093351,45.392966
196,1.035154,0.174187,93.054667,-11.394425
197,1.032897,0.144523,0.025420,0.065971
198,1.038169,0.172145,0.080085,17.395919
199,1.026598,0.047133,-0.025363,-0.073024
200,1.044709,0.275096,1.928705,6.177735
201,1.044321,0.276772,32.544312,0.952229
202,1.044659,0.276485,32.540084,0.970609
203,1.043863,0.277061,122.568187,-11.265049
204,1.022342,-0.083576,0.070487,-0.028160
205,1.023385,-0.088055,0.132105,-0.031522
206,1.029890,0.103172,35.012642,8.683989
207,1.029659,0.102986,35.101108,7.212707
208,1.023438,0.078810,-0.047637,0.107877
209,1.025633,0.081878,0.013414,-0.026364
210,1.025408,0.078240,0.015423,0.099682
211,1.025584,0.085758,0.058588,0.003303
212,1.023975,0.251246,-0.035589,-0.113502
213,1.023923,-0.073127,0.087658,0.054861
214,1.023937,-0.072077,0.075576,0.043602
215,1.023035,-0.073625,0.055173,0.019283
216,1.023999,-0.073610,0.138035,-0.028078
217,1.024876,-0.074444,-0.001738,-0.066604
218,1.030985,0.116313,100.601638,37.022410
219,1.021934,-0.088994,0.010394,-0.043922
220,1.031507,0.102605,879.195233,151.484089
221,1.030574,0.100830,-0.021736,-0.036651
222,1.025278,-0.039019,392.044589,80.267743
223,1.024520,0.166182,0.072487,0.033190
224,1.028959,0.173720,0.036386,-0.039014
225,1.047471,0.216234,95.537397,-12.794590
226,1.045827,-0.025666,-0.016953,-0.092284
227,1.043692,-0.024300,0.052952,-7.389378
228,1.044165,-0.023466,0.002279,-11.135329
229,1.040036,0.080121,-0.032330,11.174544
230,1.040915,0.080430,0.049879,8.038997
231,1.043452,0.142385,0.035153,5.236582
232,1.044599,0.092556,157.447267,13.053971
233,1.045199,0.094162,157.486957,14.763857
234,1.045631,-0.001609,294.966878,-23.289096
235,1.045587,-0.000968,295.064692,-18.805996
236,1.046308,-0.000471,295.105207,-18.844621
237,1.046067,0.156306,288.073566,0.037265
238,1.045607,0.155736,288.115824,0.010223
239,1.043155,0.000336,390.139211,-33.156105
240,1.042807,-0.000171,362.427296,38.276563
241,1.046025,0.107927,413.018721,4.395730
242,1.045514,0.107212,413.035319,11.309240
243,1.045646,0.155869,251.141512,-0.004982
244,1.044909,0.156510,251.089171,-0.018239
245,1.019509,-0.063745,-48.918705,-15.393878
246,1.026650,-0.105919,-21.983841,-5.094367
247,1.021743,-0.128278,-2.405444,0.144230
248,1.025994,0.208210,-0.924347,0.225938
249,1.027638,-0.105720,-5.314792,1.087590
250,1.043281,-0.037318,-47.264967,8.650833
251,1.029052,0.070805,105.902610,-7.007086
252,1.031155,0.302894,167.712377,-17.926307
253,1.029754,0.281857,113.814671,-8.815550
254,1.036957,0.168781,239.598801,-30.459988
255,1.041980,-0.053545,-169.096199,32.408339
256,1.024991,0.075685,-10.320043,-0.544675
257,1.026522,0.174622,-1.137730,0.648405
258,1.026771,0.096695,-1.558156,0.542461
259,1.027119,0.208098,-0.167961,0.648505
260,0.986777,-0.107707,-148.186410,-47.207072
261,1.022118,0.222979,-1.020951,0.517012
262,1.025860,0.190269,221.355994,-34.712803
263,1.024800,0.264167,123.574411,-23.334875
264,1.029470,0.180343,255.461159,-36.179625
265,1.024572,0.166097,101.630771,0.978824
266,1.023704,0.251428,130.002893,-17.941994
267,1.029058,0.222091,167.089828,-41.053178
268,1.042543,0.146815,145.225015,17.186523
269,1.008702,0.164183,-0.022055,0.010690
270,1.009088,0.164228,0.122163,0.072117
271,1.009139,0.181937,0.010972,-0.034652
272,1.010340,0.219111,0.033422,-0.024773
273,1.028646,-0.021279,30.083587,11.791582
274,1.027781,-0.022697,0.011940,0.101096
275,1.028062,-0.024191,0.013849,0.076054
276,1.023263,-0.035341,-0.073206,0.057607
277,1.023924,-0.034540,0.074729,0.067616
278,1.022139,-0.036686,0.012811,0.045518
279,1.019835,-0.039682,0.068747,-0.019945
280,1.021536,-0.026002,0.091019,-0.055618
281,1.025326,-0.024465,-0.028412,-0.035086
282,1.027132,-0.023255,-0.043544,-0.065595
283,1.012054,0.071352,0.097408,0.142768
284,1.015989,0.061353,0.031053,-0.019570
285,1.016712,0.062588,0.027599,-0.030841
286,1.018308,0.059350,0.073725,-0.008708
287,1.008252,-0.053707,0.044798,-0.030354
288,1.007758,-0.054421,0.132436,0.000789
289,1.010213,-0.044968,0.068578,-0.073576
290,1.010924,-0.036053,0.030675,0.071699
291,1.011182,-0.035288,0.067976,0.025595
292,1.011857,-0.035089,0.045066,-0.031819
293,1.013599,-0.019441,25.963498,-8.682511
294,1.010787,0.210034,0.048036,-0.036703
295,1.010567,0.212761,-0.068420,-0.057876
296,1.010074,0.214536,0.025930,-0.004184
297,1.011252,0.215532,0.026690,0.002155
298,1.011943,0.233443,-0.024987,-0.005376
299,1.012259,0.233182,0.023948,-0.051976
300,1.011822,0.232705,0.035773,0.053182
301,1.012583,0.225183,-0.062501,0.023207
302,1.012454,0.219240,-0.063877,0.008149
303,1.011483,0.211497,0.094998,-0.041766
304,1.011833,0.210755,0.045437,0.031924
